string
__Jmol-14_08101900163D 1   1.00000     0.00000     0
Jmol version 14.29.29  2018-11-28 19:07 EXTRACT: ({0:12})
 13 12  0  0  0  0            999 V2000
    0.0000    0.0000    0.0000 N   0  0  0  0  0  0
   -0.0965    1.8016    0.8632 O   0  0  0  0  0  0
    1.8120    1.2329    1.0483 N   0  0  0  0  0  0
    2.6380    0.0921    2.4683 N   0  0  0  0  0  0
    0.7354   -0.0418    3.0703 N   0  0  0  0  0  0
   -0.9384    1.0177    2.7953 O   0  0  0  0  0  0
   -2.2919    1.5794    1.4343 O   0  0  0  0  0  0
   -4.2505    1.5243    1.8355 N   0  0  0  0  0  0
   -4.0322    2.5087    3.5627 N   0  0  0  0  0  0
   -2.0919    2.8819    3.2528 O   0  0  0  0  0  0
   -1.3057    3.5755    1.5496 O   0  0  0  0  0  0
    0.1172    2.9859    2.8255 O   0  0  0  0  0  0
    1.9280    2.3380    3.3741 N   0  0  0  0  0  0
  1  2  1  0  0  0
  2  3  1  0  0  0
  3  4  1  0  0  0
  4  5  1  0  0  0
  5  6  1  0  0  0
  6  7  1  0  0  0
  7  8  1  0  0  0
  8  9  1  0  0  0
  9 10  1  0  0  0
 10 11  1  0  0  0
 11 12  1  0  0  0
 12 13  1  0  0  0
M  END