string
__Jmol-14_08101900123D 1   1.00000     0.00000     0
Jmol version 14.29.29  2018-11-28 19:07 EXTRACT: ({0:45})
 46 45  0  0  0  0            999 V2000
    0.0000    0.0000    0.0000 N   0  0  0  0  0  0
    0.0000    2.0000    0.0000 N   0  0  0  0  0  0
   -0.7726    3.8448    0.0000 O   0  0  0  0  0  0
   -0.2322    5.6221   -0.7409 O   0  0  0  0  0  0
   -0.2712    5.6210    1.2588 O   0  0  0  0  0  0
    0.2706    7.5451    1.1928 N   0  0  0  0  0  0
   -1.6987    7.2142    1.3048 O   0  0  0  0  0  0
   -2.2381    5.6484    0.1835 O   0  0  0  0  0  0
   -1.7633    7.2392   -0.9319 O   0  0  0  0  0  0
   -1.4373    9.1940   -1.2009 N   0  0  0  0  0  0
   -1.8035   10.8407   -0.1266 N   0  0  0  0  0  0
   -3.1584   10.9132   -1.5960 N   0  0  0  0  0  0
   -4.2220   10.4761    0.0404 N   0  0  0  0  0  0
   -4.6047    8.5422    0.3774 N   0  0  0  0  0  0
   -3.8718    6.9132    1.2770 O   0  0  0  0  0  0
   -4.2170    4.9797    0.9000 O   0  0  0  0  0  0
   -5.4921    3.4445    0.7686 N   0  0  0  0  0  0
   -4.4156    3.4394    2.4542 O   0  0  0  0  0  0
   -2.7316    3.6246    3.5171 O   0  0  0  0  0  0
   -1.1432    4.3728    4.4748 O   0  0  0  0  0  0
    0.4876    4.2968    5.6301 N   0  0  0  0  0  0
    0.7670    3.4033    3.8627 O   0  0  0  0  0  0
    0.3048    2.1333    2.3884 N   0  0  0  0  0  0
   -0.8329    3.7777    2.3484 O   0  0  0  0  0  0
   -2.5208    3.6427    1.2841 O   0  0  0  0  0  0
   -2.3427    5.3636    2.2876 O   0  0  0  0  0  0
   -0.9064    6.2428    3.3664 O   0  0  0  0  0  0
    0.9383    7.0084    3.4717 N   0  0  0  0  0  0
    1.6451    7.0198    5.3427 N   0  0  0  0  0  0
   -0.1306    7.7946    5.8393 N   0  0  0  0  0  0
   -1.8877    7.5720    4.9104 O   0  0  0  0  0  0
   -2.8700    7.2712    3.1944 O   0  0  0  0  0  0
   -2.9048    5.6615    4.3809 O   0  0  0  0  0  0
   -4.3476    5.5718    2.9987 O   0  0  0  0  0  0
   -5.5842    5.8097    4.5524 O   0  0  0  0  0  0
   -4.5675    4.0882    4.6045 O   0  0  0  0  0  0
   -2.9276    3.9372    5.7393 O   0  0  0  0  0  0
   -4.0766    5.4954    6.2414 O   0  0  0  0  0  0
   -4.8684    6.1738    7.9481 N   0  0  0  0  0  0
   -5.5866    7.1195    6.3388 O   0  0  0  0  0  0
   -4.1034    7.3504    5.0172 O   0  0  0  0  0  0
   -5.0371    7.6227    3.2696 O   0  0  0  0  0  0
   -5.7954    9.2727    2.4314 N   0  0  0  0  0  0
   -4.1050   10.3368    2.5311 N   0  0  0  0  0  0
   -3.4288    9.2483    4.0667 O   0  0  0  0  0  0
   -5.1119   10.0777    4.7592 N   0  0  0  0  0  0
  1  2  1  0  0  0
  2  3  1  0  0  0
  3  4  1  0  0  0
  4  5  1  0  0  0
  5  6  1  0  0  0
  6  7  1  0  0  0
  7  8  1  0  0  0
  8  9  1  0  0  0
  9 10  1  0  0  0
 10 11  1  0  0  0
 11 12  1  0  0  0
 12 13  1  0  0  0
 13 14  1  0  0  0
 14 15  1  0  0  0
 15 16  1  0  0  0
 16 17  1  0  0  0
 17 18  1  0  0  0
 18 19  1  0  0  0
 19 20  1  0  0  0
 20 21  1  0  0  0
 21 22  1  0  0  0
 22 23  1  0  0  0
 23 24  1  0  0  0
 24 25  1  0  0  0
 25 26  1  0  0  0
 26 27  1  0  0  0
 27 28  1  0  0  0
 28 29  1  0  0  0
 29 30  1  0  0  0
 30 31  1  0  0  0
 31 32  1  0  0  0
 32 33  1  0  0  0
 33 34  1  0  0  0
 34 35  1  0  0  0
 35 36  1  0  0  0
 36 37  1  0  0  0
 37 38  1  0  0  0
 38 39  1  0  0  0
 39 40  1  0  0  0
 40 41  1  0  0  0
 41 42  1  0  0  0
 42 43  1  0  0  0
 43 44  1  0  0  0
 44 45  1  0  0  0
 45 46  1  0  0  0
M  END