string
__Jmol-14_08101900143D 1   1.00000     0.00000     0
Jmol version 14.29.29  2018-11-28 19:07 EXTRACT: ({0:24})
 25 24  0  0  0  0            999 V2000
    0.0000    0.0000    0.0000 O   0  0  0  0  0  0
    0.0217    1.6350    1.1516 O   0  0  0  0  0  0
    1.7073    1.7189    2.2248 N   0  0  0  0  0  0
    0.7038    0.7252    3.6410 N   0  0  0  0  0  0
   -0.7025    0.0208    2.4057 O   0  0  0  0  0  0
   -1.9462    0.5772    0.9416 O   0  0  0  0  0  0
   -3.9231    0.6432    1.2371 N   0  0  0  0  0  0
   -4.8841   -0.3696    2.6691 N   0  0  0  0  0  0
   -6.3669    0.7463    1.9233 N   0  0  0  0  0  0
   -5.2749    2.1101    2.8967 N   0  0  0  0  0  0
   -3.3896    1.7563    3.4626 N   0  0  0  0  0  0
   -1.6689    2.1373    2.5170 O   0  0  0  0  0  0
   -0.5031    2.9744    3.9099 N   0  0  0  0  0  0
    1.2848    3.7928    3.5443 N   0  0  0  0  0  0
    0.3012    4.4127    1.9170 N   0  0  0  0  0  0
   -1.0627    3.5060    0.7691 O   0  0  0  0  0  0
   -2.2002    3.5172   -0.8759 N   0  0  0  0  0  0
   -1.1247    1.8372   -0.7310 O   0  0  0  0  0  0
    0.8676    1.9296   -0.8789 O   0  0  0  0  0  0
    2.6576    2.2034   -0.0296 N   0  0  0  0  0  0
    4.0297    1.8444    1.3805 N   0  0  0  0  0  0
    3.6694    3.0031    2.9704 N   0  0  0  0  0  0
    2.7610    4.1057    1.5706 N   0  0  0  0  0  0
    4.6535    4.1580    0.9257 N   0  0  0  0  0  0
    3.5997    4.4392   -0.7507 N   0  0  0  0  0  0
  1  2  1  0  0  0
  2  3  1  0  0  0
  3  4  1  0  0  0
  4  5  1  0  0  0
  5  6  1  0  0  0
  6  7  1  0  0  0
  7  8  1  0  0  0
  8  9  1  0  0  0
  9 10  1  0  0  0
 10 11  1  0  0  0
 11 12  1  0  0  0
 12 13  1  0  0  0
 13 14  1  0  0  0
 14 15  1  0  0  0
 15 16  1  0  0  0
 16 17  1  0  0  0
 17 18  1  0  0  0
 18 19  1  0  0  0
 19 20  1  0  0  0
 20 21  1  0  0  0
 21 22  1  0  0  0
 22 23  1  0  0  0
 23 24  1  0  0  0
 24 25  1  0  0  0
M  END